Distrib/IEEETestCases/ShortCircuitCases/123Bus/4kvckt_Losses.Txt

LOSSES REPORT

Power Delivery Element Loss Report

Element                  kW Losses    % of Power   kvar Losses

"Transformer.sub"        3.95494,     1.33     4.82105
"Transformer.3.1"        0.25546,     1.52     0.640234
"Transformer.4.2"        0.18404,     1.62     0.443992
"Transformer.6.2"        0.16195,     2.24     0.119057
"Transformer.8.2"        0.24838,     1.52     0.614016
"Transformer.9.2"        0.08805,     2.57     0.0668299
"Transformer.11.1"       0.11065,     3.88     0.0275169
"Transformer.12.1"       0.12319,     2.26     0.0996536
"Transformer.14.1"       0.15780,     2.61     0.0820381
"Transformer.16.2"       0.14685,     1.75     0.239879
"Transformer.17.1.2.3"   0.25746,     2.34     0.343873
"Transformer.18.3"       0.16460,     1.66     0.33529
"Transformer.19.3"       0.14214,     1.80     0.21116
"Transformer.20.2"       0.19173,     1.70     0.292305
"Transformer.21.3"       0.05693,     6.39     0.00680519
"Transformer.22.2"       0.22201,     1.62     0.65518
"Transformer.23.2"       0.13359,     1.90     0.169307
"Transformer.24.2"       0.19341,     1.61     0.499175
"Transformer.26.3"       0.16454,     1.66     0.33581
"Transformer.27.3"       0.14647,     1.76     0.236117
"Transformer.28.3"       0.23680,     1.53     0.54395
"Transformer.29.2"       0.11262,     2.93     0.0506074
"Transformer.30.3"       0.22118,     1.56     0.456619
"Transformer.31.3"       0.24683,     1.52     0.602464
"Transformer.32.2"       0.19538,     2.02     0.159789
"Transformer.33.2"       0.11224,     2.97     0.0488557
"Transformer.34.2"       0.13794,     1.84     0.193658
"Transformer.35.3"       0.16418,     1.66     0.335256
"Transformer.36.3"       0.16842,     2.04     0.155377
"Transformer.37.3"       0.16389,     2.17     0.129101
"Transformer.38.1"       0.09336,     2.36     0.0875486
"Transformer.39.1"       0.12147,     2.34     0.0903458
"Transformer.40.1"       0.19546,     1.61     0.499821
"Transformer.41.1"       0.12469,     2.19     0.108755
"Line.l1"                0.05176,     0.02     0.17386
"Line.l2"                0.12041,     0.04     0.312397
"Line.l3"                0.05060,     0.02     0.138473
"Line.l4"                0.04432,     0.02     0.120111
"Line.l5"                0.00023,      0.0     -0.00145894
"Line.l6"                0.00031,      0.0     -0.00228246
"Line.l7"                0.04762,     0.02     0.129332
"Line.l8"                0.04606,     0.02     0.124985
"Line.l9"                0.00084,      0.0     7.47881E-005
"Line.l10"               0.00140,     0.01     -0.00123484
"Line.l11"               0.00158,     0.01     -0.00262433
"Line.l12"               0.00000,      0.0     -0.00196184
"Line.l13"               0.02807,     0.01     0.0728817
"Line.l14"               0.01244,     0.01     0.0325042
"Line.l15"               0.02496,     0.01     0.0655358
"Line.l16"               0.00745,     0.02     0.00731995
"Line.l17"               0.00308,     0.01     0.000744928
"Line.l18"               0.00172,     0.01     -0.000984094
"Line.l19"               0.00084,      0.0     -0.00210443
"Line.l20"               0.00035,      0.0     0.000137902
"Line.l21"               0.00368,     0.01     0.00234645
"Line.l22"               0.00276,     0.01     0.000756538
"Line.l23"               0.00014,      0.0     -0.000862258
"Line.l24"               0.00956,     0.01     0.0243168
"Line.l25"               0.00977,     0.01     0.0247779
"Line.l26"               0.00606,     0.01     0.0153997
"Line.l27"               0.00952,     0.03     0.0095136
"Line.l28"               0.00451,     0.03     0.00362438
"Line.l29"               0.00347,     0.02     0.00317108
"Line.l30"               0.00224,     0.02     0.00114773
"Line.l31"               0.00038,      0.0     -7.47985E-005
"Line.l32"               0.00428,     0.01     0.0108845
"Line.l33"               0.00294,     0.01     0.00670183
"Line.l34"               0.00156,     0.01     0.00545805
"Line.l35"               0.00062,      0.0     0.0016776
"Line.l36"               0.00013,      0.0     -0.000219211
"Line.l37"               0.00143,     0.01     0.00506477
"Line.l38"               0.00116,     0.01     0.00390432
"Line.l39"               0.00081,      0.0     0.00240216
"Line.l40"               0.00012,      0.0     -0.000760045

LINE LOSSES=                         0.5 kW
TRANSFORMER LOSSES=                  9.4 kW

TOTAL LOSSES=                        9.9 kW

TOTAL LOAD POWER =                 287.6 kW
Percent Losses for Circuit =      3.44 %
